guanoxan
     RDKit          3D

 28 29  0  0  1  0  0  0  0  0999 V2000
   -4.3695   -0.6086    0.0905 C   0  0  0  0  0  0  0  0  0  0  0  0
   -4.3629    0.6923    0.5538 C   0  0  0  0  0  0  0  0  0  0  0  0
   -3.1512    1.2912    0.8631 C   0  0  0  0  0  0  0  0  0  0  0  0
   -1.9496    0.6483    0.7299 C   0  0  0  0  0  0  0  0  0  0  0  0
   -1.9631   -0.6654    0.2615 C   0  0  0  0  0  0  0  0  0  0  0  0
   -3.1595   -1.2747   -0.0505 C   0  0  0  0  0  0  0  0  0  0  0  0
   -0.7258    1.1802    1.0166 O   0  0  0  0  0  0  0  0  0  0  0  0
    0.5090    0.7804    0.4330 C   0  0  0  0  0  0  0  0  0  0  0  0
    0.4346   -0.5220   -0.2622 C   0  0  0  0  0  0  0  0  0  0  0  0
   -0.7296   -1.2747    0.1426 O   0  0  0  0  0  0  0  0  0  0  0  0
    1.6502   -1.3967   -0.2093 C   0  0  0  0  0  0  0  0  0  0  0  0
    2.8659   -0.7561   -0.6081 N   0  0  0  0  0  0  0  0  0  0  0  0
    3.5658    0.2495    0.0892 C   0  0  0  0  0  0  0  0  0  0  0  0
    3.7591    1.5810   -0.3157 N   0  0  0  0  0  0  0  0  0  0  0  0
    4.1083   -0.0876    1.2375 N   0  0  0  0  0  0  0  0  0  0  0  0
   -5.3078   -1.0925   -0.1560 H   0  0  0  0  0  0  0  0  0  0  0  0
   -5.2955    1.2283    0.6679 H   0  0  0  0  0  0  0  0  0  0  0  0
   -3.1244    2.3191    1.2317 H   0  0  0  0  0  0  0  0  0  0  0  0
   -3.1598   -2.2929   -0.4130 H   0  0  0  0  0  0  0  0  0  0  0  0
    0.7516    1.6150   -0.2822 H   0  0  0  0  0  0  0  0  0  0  0  0
    1.2383    0.8125    1.2551 H   0  0  0  0  0  0  0  0  0  0  0  0
    0.2538   -0.3211   -1.3585 H   0  0  0  0  0  0  0  0  0  0  0  0
    1.7504   -1.8782    0.8081 H   0  0  0  0  0  0  0  0  0  0  0  0
    1.4459   -2.2712   -0.8776 H   0  0  0  0  0  0  0  0  0  0  0  0
    3.2740   -1.0916   -1.5454 H   0  0  0  0  0  0  0  0  0  0  0  0
    3.9470    1.8283   -1.3103 H   0  0  0  0  0  0  0  0  0  0  0  0
    3.7204    2.3642    0.3711 H   0  0  0  0  0  0  0  0  0  0  0  0
    4.0243   -1.0568    1.6147 H   0  0  0  0  0  0  0  0  0  0  0  0
  1  2  2  0
  1  6  1  0
  2  3  1  0
  3  4  2  0
  4  5  1  0
  4  7  1  0
  5  6  2  0
  5 10  1  0
  7  8  1  0
  8  9  1  0
  9 11  1  0
  9 10  1  0
 11 12  1  0
 12 13  1  0
 13 14  1  0
 13 15  2  3
  1 16  1  0
  2 17  1  0
  3 18  1  0
  6 19  1  0
  8 20  1  0
  8 21  1  0
  9 22  1  0
 11 23  1  0
 11 24  1  0
 12 25  1  0
 14 26  1  0
 14 27  1  0
 15 28  1  0
M  END

$$$$
saquinavir
     RDKit          3D

 99103  0  0  1  0  0  0  0  0999 V2000
   -2.7346   -0.1803    0.8047 N   0  0  0  0  0  0  0  0  0  0  0  0
   -4.2108   -0.2559    0.7788 C   0  0  0  0  0  0  0  0  0  0  0  0
   -2.4848    1.1576    1.3880 C   0  0  0  0  0  0  0  0  0  0  0  0
   -2.2817   -0.1619   -0.6060 C   0  0  0  0  0  0  0  0  0  0  0  0
   -4.7966    0.6384   -0.2654 C   0  0  0  0  0  0  0  0  0  0  0  0
   -4.7887   -1.5714    0.9405 C   0  0  0  0  0  0  0  0  0  0  0  0
   -3.1100    2.2581    0.6046 C   0  0  0  0  0  0  0  0  0  0  0  0
   -0.8380   -0.3248   -0.6868 C   0  0  0  0  0  0  0  0  0  0  0  0
   -4.5290    2.0597    0.2074 C   0  0  0  0  0  0  0  0  0  0  0  0
   -4.3143   -2.6010    1.7626 N   0  0  0  0  0  0  0  0  0  0  0  0
   -5.8560   -1.8195    0.2613 O   0  0  0  0  0  0  0  0  0  0  0  0
   -3.1134    3.4841    1.5525 C   0  0  0  0  0  0  0  0  0  0  0  0
   -0.1235    0.1618   -1.8793 C   0  0  0  0  0  0  0  0  0  0  0  0
   -0.4239   -1.5737   -0.2732 O   0  0  0  0  0  0  0  0  0  0  0  0
   -4.9368    3.0979   -0.7962 C   0  0  0  0  0  0  0  0  0  0  0  0
   -4.8628   -3.8970    1.9452 C   0  0  0  0  0  0  0  0  0  0  0  0
   -4.2838    4.3715    1.2493 C   0  0  0  0  0  0  0  0  0  0  0  0
   -0.4794   -0.1199   -3.2342 C   0  0  0  0  0  0  0  0  0  0  0  0
    1.3242    0.2154   -1.5520 N   0  0  0  0  0  0  0  0  0  0  0  0
   -4.6034    4.4593   -0.2276 C   0  0  0  0  0  0  0  0  0  0  0  0
   -4.0426   -4.6170    3.0381 C   0  0  0  0  0  0  0  0  0  0  0  0
   -6.3227   -3.9248    2.2724 C   0  0  0  0  0  0  0  0  0  0  0  0
   -4.5558   -4.7069    0.6631 C   0  0  0  0  0  0  0  0  0  0  0  0
   -0.5681   -1.4544   -3.7998 C   0  0  0  0  0  0  0  0  0  0  0  0
    2.3682    0.6731   -1.0101 C   0  0  0  0  0  0  0  0  0  0  0  0
   -1.7783   -2.1109   -3.7649 C   0  0  0  0  0  0  0  0  0  0  0  0
    0.5245   -2.0970   -4.3973 C   0  0  0  0  0  0  0  0  0  0  0  0
    3.7510    0.0650   -1.1239 C   0  0  0  0  0  0  0  0  0  0  0  0
    2.3945    1.7413   -0.2647 O   0  0  0  0  0  0  0  0  0  0  0  0
   -1.9452   -3.4024   -4.3089 C   0  0  0  0  0  0  0  0  0  0  0  0
    0.3218   -3.3538   -4.9146 C   0  0  0  0  0  0  0  0  0  0  0  0
    4.7172    0.7771   -0.3969 N   0  0  0  0  0  0  0  0  0  0  0  0
    3.7415   -1.4021   -0.6974 C   0  0  0  0  0  0  0  0  0  0  0  0
   -0.8929   -4.0231   -4.8832 C   0  0  0  0  0  0  0  0  0  0  0  0
    5.9203    1.2155   -1.0839 C   0  0  0  0  0  0  0  0  0  0  0  0
    3.3067   -1.5876    0.7105 C   0  0  0  0  0  0  0  0  0  0  0  0
    6.9499    1.9066   -0.3444 C   0  0  0  0  0  0  0  0  0  0  0  0
    6.0721    0.9928   -2.2930 O   0  0  0  0  0  0  0  0  0  0  0  0
    3.3610   -2.8186    1.3623 N   0  0  0  0  0  0  0  0  0  0  0  0
    2.8732   -0.5787    1.3246 O   0  0  0  0  0  0  0  0  0  0  0  0
    6.7838    2.1410    0.9587 N   0  0  0  0  0  0  0  0  0  0  0  0
    8.1199    2.2456   -1.0338 C   0  0  0  0  0  0  0  0  0  0  0  0
    7.7490    2.7245    1.6899 C   0  0  0  0  0  0  0  0  0  0  0  0
    9.1125    2.8425   -0.2932 C   0  0  0  0  0  0  0  0  0  0  0  0
    8.9203    3.0730    1.0429 C   0  0  0  0  0  0  0  0  0  0  0  0
    7.5547    2.9289    3.0376 C   0  0  0  0  0  0  0  0  0  0  0  0
    9.9426    3.6508    1.7963 C   0  0  0  0  0  0  0  0  0  0  0  0
    8.5847    3.5036    3.7677 C   0  0  0  0  0  0  0  0  0  0  0  0
    9.7799    3.8610    3.1259 C   0  0  0  0  0  0  0  0  0  0  0  0
   -4.4875    0.2847    1.7729 H   0  0  0  0  0  0  0  0  0  0  0  0
   -1.4361    1.3404    1.5480 H   0  0  0  0  0  0  0  0  0  0  0  0
   -3.0071    1.1374    2.3917 H   0  0  0  0  0  0  0  0  0  0  0  0
   -2.5993    0.7919   -1.0918 H   0  0  0  0  0  0  0  0  0  0  0  0
   -2.9055   -0.9411   -1.0677 H   0  0  0  0  0  0  0  0  0  0  0  0
   -5.9338    0.4572   -0.1910 H   0  0  0  0  0  0  0  0  0  0  0  0
   -4.5079    0.4537   -1.2909 H   0  0  0  0  0  0  0  0  0  0  0  0
   -2.4984    2.5354   -0.3126 H   0  0  0  0  0  0  0  0  0  0  0  0
   -0.4565    0.3374    0.1993 H   0  0  0  0  0  0  0  0  0  0  0  0
   -5.2184    2.1905    1.0875 H   0  0  0  0  0  0  0  0  0  0  0  0
   -3.4325   -2.3532    2.3110 H   0  0  0  0  0  0  0  0  0  0  0  0
   -3.1368    3.2044    2.6108 H   0  0  0  0  0  0  0  0  0  0  0  0
   -2.1994    4.0920    1.3110 H   0  0  0  0  0  0  0  0  0  0  0  0
   -0.3273    1.3278   -1.7970 H   0  0  0  0  0  0  0  0  0  0  0  0
   -0.0212   -1.6469    0.6011 H   0  0  0  0  0  0  0  0  0  0  0  0
   -4.4733    2.9392   -1.7873 H   0  0  0  0  0  0  0  0  0  0  0  0
   -6.0596    2.9925   -0.8763 H   0  0  0  0  0  0  0  0  0  0  0  0
   -5.1891    4.1302    1.8286 H   0  0  0  0  0  0  0  0  0  0  0  0
   -3.9946    5.3958    1.5912 H   0  0  0  0  0  0  0  0  0  0  0  0
   -1.4344    0.4328   -3.5066 H   0  0  0  0  0  0  0  0  0  0  0  0
    0.2756    0.4245   -3.9006 H   0  0  0  0  0  0  0  0  0  0  0  0
    1.6523   -0.7905   -2.1994 H   0  0  0  0  0  0  0  0  0  0  0  0
   -5.4954    5.1119   -0.3394 H   0  0  0  0  0  0  0  0  0  0  0  0
   -3.7077    4.9346   -0.7250 H   0  0  0  0  0  0  0  0  0  0  0  0
   -4.1998   -4.1273    4.0282 H   0  0  0  0  0  0  0  0  0  0  0  0
   -4.2766   -5.6999    3.0426 H   0  0  0  0  0  0  0  0  0  0  0  0
   -2.9729   -4.5408    2.7759 H   0  0  0  0  0  0  0  0  0  0  0  0
   -6.4743   -3.2358    3.1504 H   0  0  0  0  0  0  0  0  0  0  0  0
   -6.5761   -4.9286    2.6882 H   0  0  0  0  0  0  0  0  0  0  0  0
   -6.9053   -3.6650    1.3916 H   0  0  0  0  0  0  0  0  0  0  0  0
   -3.5917   -4.3302    0.2949 H   0  0  0  0  0  0  0  0  0  0  0  0
   -4.5001   -5.7905    0.9075 H   0  0  0  0  0  0  0  0  0  0  0  0
   -5.3395   -4.4463   -0.0595 H   0  0  0  0  0  0  0  0  0  0  0  0
   -2.6669   -1.6875   -3.3258 H   0  0  0  0  0  0  0  0  0  0  0  0
    1.4806   -1.5949   -4.4460 H   0  0  0  0  0  0  0  0  0  0  0  0
    3.9850    0.0414   -2.2129 H   0  0  0  0  0  0  0  0  0  0  0  0
   -2.9451   -3.8663   -4.2403 H   0  0  0  0  0  0  0  0  0  0  0  0
    1.1629   -3.8839   -5.3913 H   0  0  0  0  0  0  0  0  0  0  0  0
    4.6295    1.0041    0.6360 H   0  0  0  0  0  0  0  0  0  0  0  0
    4.7688   -1.7783   -0.8774 H   0  0  0  0  0  0  0  0  0  0  0  0
    3.0988   -1.9583   -1.3846 H   0  0  0  0  0  0  0  0  0  0  0  0
   -1.0151   -5.0288   -5.3098 H   0  0  0  0  0  0  0  0  0  0  0  0
    3.9865   -3.5771    0.9545 H   0  0  0  0  0  0  0  0  0  0  0  0
    2.8405   -3.0608    2.2205 H   0  0  0  0  0  0  0  0  0  0  0  0
    8.2304    2.0473   -2.0794 H   0  0  0  0  0  0  0  0  0  0  0  0
   10.0410    3.1073   -0.8112 H   0  0  0  0  0  0  0  0  0  0  0  0
    6.6242    2.6416    3.4694 H   0  0  0  0  0  0  0  0  0  0  0  0
   10.8656    3.9236    1.2931 H   0  0  0  0  0  0  0  0  0  0  0  0
    8.4859    3.6775    4.8137 H   0  0  0  0  0  0  0  0  0  0  0  0
   10.5610    4.3115    3.7618 H   0  0  0  0  0  0  0  0  0  0  0  0
  1  3  1  0
  1  4  1  0
  1  2  1  0
  2  5  1  0
  2  6  1  0
  3  7  1  0
  4  8  1  0
  5  9  1  0
  6 10  1  0
  6 11  2  0
  7 12  1  0
  7  9  1  0
  8 13  1  0
  8 14  1  0
  9 15  1  0
 10 16  1  0
 12 17  1  0
 13 18  1  0
 13 19  1  0
 15 20  1  0
 16 21  1  0
 16 22  1  0
 16 23  1  0
 17 20  1  0
 18 24  1  0
 19 25  1  0
 24 26  2  0
 24 27  1  0
 25 28  1  0
 25 29  2  0
 26 30  1  0
 27 31  2  0
 28 33  1  0
 28 32  1  0
 30 34  2  0
 31 34  1  0
 32 35  1  0
 33 36  1  0
 35 37  1  0
 35 38  2  0
 36 39  1  0
 36 40  2  0
 37 42  1  0
 37 41  2  0
 41 43  1  0
 42 44  2  0
 43 46  2  0
 43 45  1  0
 44 45  1  0
 45 47  2  0
 46 48  1  0
 47 49  1  0
 48 49  2  0
  2 50  1  0
  3 51  1  0
  3 52  1  0
  4 53  1  0
  4 54  1  0
  5 55  1  0
  5 56  1  0
  7 57  1  0
  8 58  1  0
  9 59  1  0
 10 60  1  0
 12 61  1  0
 12 62  1  0
 13 63  1  0
 14 64  1  0
 15 65  1  0
 15 66  1  0
 17 67  1  0
 17 68  1  0
 18 69  1  0
 18 70  1  0
 19 71  1  0
 20 72  1  0
 20 73  1  0
 21 74  1  0
 21 75  1  0
 21 76  1  0
 22 77  1  0
 22 78  1  0
 22 79  1  0
 23 80  1  0
 23 81  1  0
 23 82  1  0
 26 83  1  0
 27 84  1  0
 28 85  1  0
 30 86  1  0
 31 87  1  0
 32 88  1  0
 33 89  1  0
 33 90  1  0
 34 91  1  0
 39 92  1  0
 39 93  1  0
 42 94  1  0
 44 95  1  0
 46 96  1  0
 47 97  1  0
 48 98  1  0
 49 99  1  0
M  END

$$$$
lidocaine
     RDKit          3D

 39 39  0  0  0  0  0  0  0  0999 V2000
    2.4463   -0.3024    0.1418 C   0  0  0  0  0  0  0  0  0  0  0  0
    1.1411   -0.7449   -0.2246 N   0  0  0  0  0  0  0  0  0  0  0  0
    2.9058   -0.3038    1.4607 C   0  0  0  0  0  0  0  0  0  0  0  0
    3.3275    0.1474   -0.8157 C   0  0  0  0  0  0  0  0  0  0  0  0
    0.0094    0.0888   -0.2810 C   0  0  0  0  0  0  0  0  0  0  0  0
    4.1795    0.1259    1.7794 C   0  0  0  0  0  0  0  0  0  0  0  0
    1.9773   -0.7887    2.5341 C   0  0  0  0  0  0  0  0  0  0  0  0
    4.6120    0.5829   -0.5147 C   0  0  0  0  0  0  0  0  0  0  0  0
    2.9003    0.1654   -2.2212 C   0  0  0  0  0  0  0  0  0  0  0  0
   -1.2879   -0.4796   -0.6699 C   0  0  0  0  0  0  0  0  0  0  0  0
    0.1330    1.2977    0.0028 O   0  0  0  0  0  0  0  0  0  0  0  0
    5.0285    0.5686    0.7866 C   0  0  0  0  0  0  0  0  0  0  0  0
   -2.3875    0.4228   -0.6907 N   0  0  0  0  0  0  0  0  0  0  0  0
   -2.8016    0.9028    0.5968 C   0  0  0  0  0  0  0  0  0  0  0  0
   -3.5081   -0.2344   -1.3244 C   0  0  0  0  0  0  0  0  0  0  0  0
   -4.0067    1.8138    0.3926 C   0  0  0  0  0  0  0  0  0  0  0  0
   -4.0775   -1.3762   -0.5118 C   0  0  0  0  0  0  0  0  0  0  0  0
    0.9920   -1.7684   -0.4732 H   0  0  0  0  0  0  0  0  0  0  0  0
    4.4962    0.1052    2.8142 H   0  0  0  0  0  0  0  0  0  0  0  0
    2.5749   -1.1932    3.3759 H   0  0  0  0  0  0  0  0  0  0  0  0
    1.4022   -1.6728    2.1267 H   0  0  0  0  0  0  0  0  0  0  0  0
    1.3107    0.0214    2.8854 H   0  0  0  0  0  0  0  0  0  0  0  0
    5.2928    0.9376   -1.3019 H   0  0  0  0  0  0  0  0  0  0  0  0
    2.0995    0.9151   -2.3773 H   0  0  0  0  0  0  0  0  0  0  0  0
    3.7418    0.3823   -2.9152 H   0  0  0  0  0  0  0  0  0  0  0  0
    2.4824   -0.8208   -2.5156 H   0  0  0  0  0  0  0  0  0  0  0  0
   -1.1647   -0.8726   -1.7108 H   0  0  0  0  0  0  0  0  0  0  0  0
   -1.4540   -1.3810   -0.0383 H   0  0  0  0  0  0  0  0  0  0  0  0
    6.0320    0.9133    1.0089 H   0  0  0  0  0  0  0  0  0  0  0  0
   -3.0869    0.1103    1.3079 H   0  0  0  0  0  0  0  0  0  0  0  0
   -2.0384    1.5389    1.0925 H   0  0  0  0  0  0  0  0  0  0  0  0
   -3.2180   -0.6715   -2.3184 H   0  0  0  0  0  0  0  0  0  0  0  0
   -4.3473    0.4783   -1.5408 H   0  0  0  0  0  0  0  0  0  0  0  0
   -3.9776    2.6829    1.1077 H   0  0  0  0  0  0  0  0  0  0  0  0
   -4.0105    2.2545   -0.6203 H   0  0  0  0  0  0  0  0  0  0  0  0
   -4.9622    1.2728    0.5608 H   0  0  0  0  0  0  0  0  0  0  0  0
   -5.0996   -1.1476   -0.1155 H   0  0  0  0  0  0  0  0  0  0  0  0
   -4.2159   -2.3061   -1.1348 H   0  0  0  0  0  0  0  0  0  0  0  0
   -3.4412   -1.6646    0.3414 H   0  0  0  0  0  0  0  0  0  0  0  0
  1  3  2  0
  1  4  1  0
  1  2  1  0
  2  5  1  0
  3  7  1  0
  3  6  1  0
  4  9  1  0
  4  8  2  0
  5 10  1  0
  5 11  2  0
  6 12  2  0
  8 12  1  0
 10 13  1  0
 13 14  1  0
 13 15  1  0
 14 16  1  0
 15 17  1  0
  2 18  1  0
  6 19  1  0
  7 20  1  0
  7 21  1  0
  7 22  1  0
  8 23  1  0
  9 24  1  0
  9 25  1  0
  9 26  1  0
 10 27  1  0
 10 28  1  0
 12 29  1  0
 14 30  1  0
 14 31  1  0
 15 32  1  0
 15 33  1  0
 16 34  1  0
 16 35  1  0
 16 36  1  0
 17 37  1  0
 17 38  1  0
 17 39  1  0
M  END

$$$$
Enalapril
     RDKit          3D

 55 56  0  0  1  0  0  0  0  0999 V2000
    3.5344   -0.2335   -0.0761 N   0  0  0  0  0  0  0  0  0  0  0  0
    4.6640   -0.8905    0.6094 C   0  0  0  0  0  0  0  0  0  0  0  0
    2.3568    0.0898    0.6608 C   0  0  0  0  0  0  0  0  0  0  0  0
    3.8587   -0.0622   -1.4511 C   0  0  0  0  0  0  0  0  0  0  0  0
    5.5635   -1.3648   -0.4788 C   0  0  0  0  0  0  0  0  0  0  0  0
    5.3150    0.0317    1.5503 C   0  0  0  0  0  0  0  0  0  0  0  0
    1.1209    0.7646    0.2091 C   0  0  0  0  0  0  0  0  0  0  0  0
    2.3375   -0.2460    1.9114 O   0  0  0  0  0  0  0  0  0  0  0  0
    5.3944   -0.2036   -1.4890 C   0  0  0  0  0  0  0  0  0  0  0  0
    4.8291    1.3160    1.6858 O   0  0  0  0  0  0  0  0  0  0  0  0
    6.2896   -0.3326    2.2196 O   0  0  0  0  0  0  0  0  0  0  0  0
    0.0562    0.2635    0.9464 N   0  0  0  0  0  0  0  0  0  0  0  0
    1.0222    1.0563   -1.2280 C   0  0  0  0  0  0  0  0  0  0  0  0
   -1.2875    0.1430    0.5046 C   0  0  0  0  0  0  0  0  0  0  0  0
   -1.5005   -0.8105   -0.6091 C   0  0  0  0  0  0  0  0  0  0  0  0
   -1.8434    1.5175    0.3075 C   0  0  0  0  0  0  0  0  0  0  0  0
   -2.9331   -1.0455   -1.0014 C   0  0  0  0  0  0  0  0  0  0  0  0
   -3.0167    1.9059   -0.2593 O   0  0  0  0  0  0  0  0  0  0  0  0
   -1.1256    2.5125    0.7249 O   0  0  0  0  0  0  0  0  0  0  0  0
   -3.6549   -1.7252    0.1149 C   0  0  0  0  0  0  0  0  0  0  0  0
   -3.4353    3.2495   -0.3974 C   0  0  0  0  0  0  0  0  0  0  0  0
   -4.3580   -1.1063    1.1083 C   0  0  0  0  0  0  0  0  0  0  0  0
   -3.5588   -3.1322    0.0634 C   0  0  0  0  0  0  0  0  0  0  0  0
   -2.5058    4.0809   -1.2390 C   0  0  0  0  0  0  0  0  0  0  0  0
   -4.9880   -1.8921    2.0822 C   0  0  0  0  0  0  0  0  0  0  0  0
   -4.1823   -3.8538    1.0244 C   0  0  0  0  0  0  0  0  0  0  0  0
   -4.8982   -3.2649    2.0375 C   0  0  0  0  0  0  0  0  0  0  0  0
    4.2474   -1.7910    1.1234 H   0  0  0  0  0  0  0  0  0  0  0  0
    3.5561    0.8315   -1.9703 H   0  0  0  0  0  0  0  0  0  0  0  0
    3.4568   -0.9952   -1.9777 H   0  0  0  0  0  0  0  0  0  0  0  0
    5.2812   -2.2911   -0.9738 H   0  0  0  0  0  0  0  0  0  0  0  0
    6.6196   -1.4383   -0.1655 H   0  0  0  0  0  0  0  0  0  0  0  0
    1.2706    1.8493    0.6885 H   0  0  0  0  0  0  0  0  0  0  0  0
    5.7572   -0.4432   -2.4766 H   0  0  0  0  0  0  0  0  0  0  0  0
    5.8483    0.7167   -1.1022 H   0  0  0  0  0  0  0  0  0  0  0  0
    5.3182    2.0713    2.1529 H   0  0  0  0  0  0  0  0  0  0  0  0
    0.2608   -0.4773    1.6414 H   0  0  0  0  0  0  0  0  0  0  0  0
    1.7291    1.9351   -1.4390 H   0  0  0  0  0  0  0  0  0  0  0  0
    1.2565    0.2718   -1.9378 H   0  0  0  0  0  0  0  0  0  0  0  0
    0.0501    1.4993   -1.5799 H   0  0  0  0  0  0  0  0  0  0  0  0
   -1.8599   -0.2763    1.3868 H   0  0  0  0  0  0  0  0  0  0  0  0
   -1.0008   -1.8093   -0.3899 H   0  0  0  0  0  0  0  0  0  0  0  0
   -1.0081   -0.4688   -1.5727 H   0  0  0  0  0  0  0  0  0  0  0  0
   -3.4046   -0.1052   -1.2777 H   0  0  0  0  0  0  0  0  0  0  0  0
   -2.9768   -1.7043   -1.9233 H   0  0  0  0  0  0  0  0  0  0  0  0
   -3.6285    3.6563    0.5978 H   0  0  0  0  0  0  0  0  0  0  0  0
   -4.4128    3.2071   -0.9466 H   0  0  0  0  0  0  0  0  0  0  0  0
   -4.4296   -0.0402    1.1386 H   0  0  0  0  0  0  0  0  0  0  0  0
   -2.9977   -3.6289   -0.7290 H   0  0  0  0  0  0  0  0  0  0  0  0
   -1.6023    4.4133   -0.7255 H   0  0  0  0  0  0  0  0  0  0  0  0
   -2.2822    3.4799   -2.1561 H   0  0  0  0  0  0  0  0  0  0  0  0
   -3.0642    4.9992   -1.5549 H   0  0  0  0  0  0  0  0  0  0  0  0
   -5.5508   -1.4091    2.8784 H   0  0  0  0  0  0  0  0  0  0  0  0
   -4.1174   -4.9393    0.9928 H   0  0  0  0  0  0  0  0  0  0  0  0
   -5.3702   -3.8811    2.7671 H   0  0  0  0  0  0  0  0  0  0  0  0
  1  4  1  0
  1  2  1  0
  1  3  1  0
  2  5  1  0
  2  6  1  0
  3  7  1  0
  3  8  2  0
  4  9  1  0
  5  9  1  0
  6 10  1  0
  6 11  2  0
  7 13  1  0
  7 12  1  0
 12 14  1  0
 14 15  1  0
 14 16  1  0
 15 17  1  0
 16 19  2  0
 16 18  1  0
 17 20  1  0
 18 21  1  0
 20 22  2  0
 20 23  1  0
 21 24  1  0
 22 25  1  0
 23 26  2  0
 25 27  2  0
 26 27  1  0
  2 28  1  0
  4 29  1  0
  4 30  1  0
  5 31  1  0
  5 32  1  0
  7 33  1  0
  9 34  1  0
  9 35  1  0
 10 36  1  0
 12 37  1  0
 13 38  1  0
 13 39  1  0
 13 40  1  0
 14 41  1  0
 15 42  1  0
 15 43  1  0
 17 44  1  0
 17 45  1  0
 21 46  1  0
 21 47  1  0
 22 48  1  0
 23 49  1  0
 24 50  1  0
 24 51  1  0
 24 52  1  0
 25 53  1  0
 26 54  1  0
 27 55  1  0
M  END

$$$$
theophylline
     RDKit          3D

 21 22  0  0  0  0  0  0  0  0999 V2000
   -0.0559    1.4482    0.2504 C   0  0  0  0  0  0  0  0  0  0  0  0
   -0.9978    0.4816   -0.0511 C   0  0  0  0  0  0  0  0  0  0  0  0
    1.2571    1.0467    0.3664 C   0  0  0  0  0  0  0  0  0  0  0  0
   -0.7334    2.5982    0.3547 N   0  0  0  0  0  0  0  0  0  0  0  0
   -0.5991   -0.8022   -0.2181 N   0  0  0  0  0  0  0  0  0  0  0  0
   -2.2007    1.1029   -0.1132 N   0  0  0  0  0  0  0  0  0  0  0  0
    1.6435   -0.2300    0.1989 N   0  0  0  0  0  0  0  0  0  0  0  0
    2.1082    1.9210    0.6390 O   0  0  0  0  0  0  0  0  0  0  0  0
   -2.0474    2.4154    0.1369 C   0  0  0  0  0  0  0  0  0  0  0  0
    0.6875   -1.1287   -0.0928 C   0  0  0  0  0  0  0  0  0  0  0  0
   -1.6337   -1.7646   -0.5320 C   0  0  0  0  0  0  0  0  0  0  0  0
    3.0526   -0.6233    0.3299 C   0  0  0  0  0  0  0  0  0  0  0  0
    1.0247   -2.3477   -0.2572 O   0  0  0  0  0  0  0  0  0  0  0  0
   -3.1213    0.6179   -0.3279 H   0  0  0  0  0  0  0  0  0  0  0  0
   -2.8649    3.1230    0.1444 H   0  0  0  0  0  0  0  0  0  0  0  0
   -1.3045   -2.8089   -0.4289 H   0  0  0  0  0  0  0  0  0  0  0  0
   -2.0031   -1.5127   -1.5520 H   0  0  0  0  0  0  0  0  0  0  0  0
   -2.4868   -1.5736    0.1741 H   0  0  0  0  0  0  0  0  0  0  0  0
    3.3929   -0.5792    1.3791 H   0  0  0  0  0  0  0  0  0  0  0  0
    3.2535   -1.5634   -0.1834 H   0  0  0  0  0  0  0  0  0  0  0  0
    3.6286    0.1795   -0.2172 H   0  0  0  0  0  0  0  0  0  0  0  0
  1  2  2  0
  1  3  1  0
  1  4  1  0
  2  6  1  0
  2  5  1  0
  3  7  1  0
  3  8  2  0
  4  9  2  0
  5 11  1  0
  5 10  1  0
  6  9  1  0
  7 12  1  0
  7 10  1  0
 10 13  2  0
  6 14  1  0
  9 15  1  0
 11 16  1  0
 11 17  1  0
 11 18  1  0
 12 19  1  0
 12 20  1  0
 12 21  1  0
M  END

$$$$
