furosemide
     RDKit          3D

 32 33  0  0  0  0  0  0  0  0999 V2000
   -0.8750   -1.0597   -0.9700 C   0  0  0  0  0  0  0  0  0  0  0  0
   -0.1004   -0.1522   -0.3193 C   0  0  0  0  0  0  0  0  0  0  0  0
   -2.2714   -0.8924   -0.9235 C   0  0  0  0  0  0  0  0  0  0  0  0
   -0.3327   -2.1737   -1.7002 C   0  0  0  0  0  0  0  0  0  0  0  0
   -0.7283    0.9086    0.3680 C   0  0  0  0  0  0  0  0  0  0  0  0
    1.3005   -0.2376   -0.3049 N   0  0  0  0  0  0  0  0  0  0  0  0
   -2.8885    0.1343   -0.2588 C   0  0  0  0  0  0  0  0  0  0  0  0
   -1.2725   -3.0399   -2.3297 O   0  0  0  0  0  0  0  0  0  0  0  0
    0.8546   -2.4982   -1.8663 O   0  0  0  0  0  0  0  0  0  0  0  0
   -2.0971    1.0437    0.3939 C   0  0  0  0  0  0  0  0  0  0  0  0
    2.0236    0.8176    0.4195 C   0  0  0  0  0  0  0  0  0  0  0  0
   -4.6437    0.2706   -0.2503 S   0  0  0  0  0  0  0  0  0  0  0  0
   -2.8228    2.3878    1.2681 Cl  0  0  0  0  0  0  0  0  0  0  0  0
    3.4863    0.6176    0.3856 C   0  0  0  0  0  0  0  0  0  0  0  0
   -5.2072    0.1960    1.3873 N   0  0  0  0  0  0  0  0  0  0  0  0
   -5.2140   -0.8663   -1.0373 O   0  0  0  0  0  0  0  0  0  0  0  0
   -5.0973    1.5423   -0.8978 O   0  0  0  0  0  0  0  0  0  0  0  0
    4.2736    1.1623   -0.6333 C   0  0  0  0  0  0  0  0  0  0  0  0
    4.2823   -0.0202    1.1785 O   0  0  0  0  0  0  0  0  0  0  0  0
    5.5846    0.7874   -0.3637 C   0  0  0  0  0  0  0  0  0  0  0  0
    5.5135    0.0462    0.7898 C   0  0  0  0  0  0  0  0  0  0  0  0
   -2.8926   -1.6144   -1.4413 H   0  0  0  0  0  0  0  0  0  0  0  0
   -0.0888    1.6238    0.8837 H   0  0  0  0  0  0  0  0  0  0  0  0
    1.8914   -0.9544   -0.7413 H   0  0  0  0  0  0  0  0  0  0  0  0
   -1.6145   -3.8598   -1.8724 H   0  0  0  0  0  0  0  0  0  0  0  0
    1.6914    0.7435    1.4735 H   0  0  0  0  0  0  0  0  0  0  0  0
    1.7445    1.8290    0.0435 H   0  0  0  0  0  0  0  0  0  0  0  0
   -6.1621   -0.2211    1.4377 H   0  0  0  0  0  0  0  0  0  0  0  0
   -5.0979    1.0823    1.8918 H   0  0  0  0  0  0  0  0  0  0  0  0
    3.9472    1.7596   -1.4735 H   0  0  0  0  0  0  0  0  0  0  0  0
    6.4537    1.0433   -0.9586 H   0  0  0  0  0  0  0  0  0  0  0  0
    6.3595   -0.4058    1.2862 H   0  0  0  0  0  0  0  0  0  0  0  0
  1  3  2  0
  1  2  1  0
  1  4  1  0
  2  5  2  0
  2  6  1  0
  3  7  1  0
  4  8  1  0
  4  9  2  0
  5 10  1  0
  6 11  1  0
  7 10  2  0
  7 12  1  0
 10 13  1  0
 11 14  1  0
 12 15  1  0
 12 16  2  0
 12 17  2  0
 14 18  2  0
 14 19  1  0
 18 20  1  0
 19 21  1  0
 20 21  2  0
  3 22  1  0
  5 23  1  0
  6 24  1  0
  8 25  1  0
 11 26  1  0
 11 27  1  0
 15 28  1  0
 15 29  1  0
 18 30  1  0
 20 31  1  0
 21 32  1  0
M  END

$$$$
guanabenz
     RDKit          3D

 22 22  0  0  0  0  0  0  0  0999 V2000
   -1.1559    0.1372   -0.2032 C   0  0  0  0  0  0  0  0  0  0  0  0
   -2.0386    1.2056   -0.3252 C   0  0  0  0  0  0  0  0  0  0  0  0
   -1.5776   -1.0549    0.3362 C   0  0  0  0  0  0  0  0  0  0  0  0
    0.2096    0.3332   -0.6635 C   0  0  0  0  0  0  0  0  0  0  0  0
   -3.3506    1.0185    0.1167 C   0  0  0  0  0  0  0  0  0  0  0  0
   -1.5392    2.7418   -1.0077 Cl  0  0  0  0  0  0  0  0  0  0  0  0
   -2.8753   -1.2166    0.7650 C   0  0  0  0  0  0  0  0  0  0  0  0
   -0.4442   -2.3703    0.4730 Cl  0  0  0  0  0  0  0  0  0  0  0  0
    1.1127   -0.5901   -0.5983 N   0  0  0  0  0  0  0  0  0  0  0  0
   -3.7961   -0.1673    0.6607 C   0  0  0  0  0  0  0  0  0  0  0  0
    2.4121   -0.3707   -1.0479 N   0  0  0  0  0  0  0  0  0  0  0  0
    3.4457   -0.1888   -0.0994 C   0  0  0  0  0  0  0  0  0  0  0  0
    3.1138    0.4776    1.0982 N   0  0  0  0  0  0  0  0  0  0  0  0
    4.6176   -0.6280   -0.3615 N   0  0  0  0  0  0  0  0  0  0  0  0
    0.5373    1.2693   -1.0861 H   0  0  0  0  0  0  0  0  0  0  0  0
   -4.0507    1.8518    0.0249 H   0  0  0  0  0  0  0  0  0  0  0  0
   -3.1957   -2.1459    1.1832 H   0  0  0  0  0  0  0  0  0  0  0  0
   -4.8163   -0.2751    0.9911 H   0  0  0  0  0  0  0  0  0  0  0  0
    2.6107   -0.3424   -2.0588 H   0  0  0  0  0  0  0  0  0  0  0  0
    3.2834    1.4879    1.1937 H   0  0  0  0  0  0  0  0  0  0  0  0
    2.7010   -0.0623    1.8711 H   0  0  0  0  0  0  0  0  0  0  0  0
    4.7964   -1.1105   -1.2623 H   0  0  0  0  0  0  0  0  0  0  0  0
  1  2  2  0
  1  3  1  0
  1  4  1  0
  2  6  1  0
  2  5  1  0
  3  8  1  0
  3  7  2  0
  4  9  2  0
  5 10  2  0
  7 10  1  0
  9 11  1  0
 11 12  1  0
 12 13  1  0
 12 14  2  3
  4 15  1  0
  5 16  1  0
  7 17  1  0
 10 18  1  0
 11 19  1  0
 13 20  1  0
 13 21  1  0
 14 22  1  0
M  END

$$$$
fleroxacin
     RDKit          3D

 44 46  0  0  0  0  0  0  0  0999 V2000
    1.7372    0.1348    0.2040 C   0  0  0  0  0  0  0  0  0  0  0  0
    2.0185    1.4814    0.3766 C   0  0  0  0  0  0  0  0  0  0  0  0
    2.6843   -0.8082    0.3615 N   0  0  0  0  0  0  0  0  0  0  0  0
    0.4483   -0.2040   -0.1268 C   0  0  0  0  0  0  0  0  0  0  0  0
    3.2953    1.9049    0.7208 C   0  0  0  0  0  0  0  0  0  0  0  0
    1.0464    2.4237    0.2205 C   0  0  0  0  0  0  0  0  0  0  0  0
    3.9308   -0.3366    0.7027 C   0  0  0  0  0  0  0  0  0  0  0  0
    2.4737   -2.1905    0.1578 C   0  0  0  0  0  0  0  0  0  0  0  0
   -0.5860    0.7349   -0.2971 C   0  0  0  0  0  0  0  0  0  0  0  0
    0.1749   -1.4920   -0.3056 F   0  0  0  0  0  0  0  0  0  0  0  0
    4.2679    0.9626    0.8856 C   0  0  0  0  0  0  0  0  0  0  0  0
    3.5018    3.1455    0.8667 O   0  0  0  0  0  0  0  0  0  0  0  0
   -0.2571    2.0390   -0.1172 C   0  0  0  0  0  0  0  0  0  0  0  0
    2.8237   -2.7044   -1.2249 C   0  0  0  0  0  0  0  0  0  0  0  0
   -1.8867    0.2873   -0.5883 N   0  0  0  0  0  0  0  0  0  0  0  0
    5.6139    1.4036    1.2486 C   0  0  0  0  0  0  0  0  0  0  0  0
   -1.1996    3.0066   -0.2404 F   0  0  0  0  0  0  0  0  0  0  0  0
    4.1950   -2.4799   -1.4755 F   0  0  0  0  0  0  0  0  0  0  0  0
   -3.0399    1.0843   -0.9340 C   0  0  0  0  0  0  0  0  0  0  0  0
   -2.2445   -1.1547   -0.4960 C   0  0  0  0  0  0  0  0  0  0  0  0
    5.9134    2.7341    1.4247 O   0  0  0  0  0  0  0  0  0  0  0  0
    6.5250    0.5608    1.4062 O   0  0  0  0  0  0  0  0  0  0  0  0
   -4.1057    1.0102    0.1470 C   0  0  0  0  0  0  0  0  0  0  0  0
   -3.7913   -1.2776   -0.5064 C   0  0  0  0  0  0  0  0  0  0  0  0
   -4.3448   -0.3824    0.4521 N   0  0  0  0  0  0  0  0  0  0  0  0
   -5.7241   -0.6684    0.7012 C   0  0  0  0  0  0  0  0  0  0  0  0
    1.2649    3.4636    0.3532 H   0  0  0  0  0  0  0  0  0  0  0  0
    4.7245   -1.0832    0.8363 H   0  0  0  0  0  0  0  0  0  0  0  0
    3.3726   -2.6507    0.7478 H   0  0  0  0  0  0  0  0  0  0  0  0
    1.7251   -2.7474    0.7131 H   0  0  0  0  0  0  0  0  0  0  0  0
    2.2247   -2.2764   -2.0454 H   0  0  0  0  0  0  0  0  0  0  0  0
    2.7118   -3.8024   -1.3084 H   0  0  0  0  0  0  0  0  0  0  0  0
   -3.4649    0.5633   -1.8729 H   0  0  0  0  0  0  0  0  0  0  0  0
   -2.9192    2.0930   -1.2502 H   0  0  0  0  0  0  0  0  0  0  0  0
   -1.9737   -1.5680    0.4756 H   0  0  0  0  0  0  0  0  0  0  0  0
   -1.9412   -1.7076   -1.3931 H   0  0  0  0  0  0  0  0  0  0  0  0
    6.0597    3.2873    0.5701 H   0  0  0  0  0  0  0  0  0  0  0  0
   -5.0060    1.5326   -0.2335 H   0  0  0  0  0  0  0  0  0  0  0  0
   -3.7348    1.5162    1.0520 H   0  0  0  0  0  0  0  0  0  0  0  0
   -4.2069   -1.2292   -1.5061 H   0  0  0  0  0  0  0  0  0  0  0  0
   -4.0427   -2.3230   -0.1377 H   0  0  0  0  0  0  0  0  0  0  0  0
   -6.3597   -0.5980   -0.2066 H   0  0  0  0  0  0  0  0  0  0  0  0
   -5.8100   -1.7086    1.0674 H   0  0  0  0  0  0  0  0  0  0  0  0
   -6.0948    0.0238    1.5050 H   0  0  0  0  0  0  0  0  0  0  0  0
  1  2  2  0
  1  4  1  0
  1  3  1  0
  2  6  1  0
  2  5  1  0
  3  8  1  0
  3  7  1  0
  4  9  2  0
  4 10  1  0
  5 11  1  0
  5 12  2  0
  6 13  2  0
  7 11  2  0
  8 14  1  0
  9 13  1  0
  9 15  1  0
 11 16  1  0
 13 17  1  0
 14 18  1  0
 15 19  1  0
 15 20  1  0
 16 21  1  0
 16 22  2  0
 19 23  1  0
 20 24  1  0
 23 25  1  0
 24 25  1  0
 25 26  1  0
  6 27  1  0
  7 28  1  0
  8 29  1  0
  8 30  1  0
 14 31  1  0
 14 32  1  0
 19 33  1  0
 19 34  1  0
 20 35  1  0
 20 36  1  0
 21 37  1  0
 23 38  1  0
 23 39  1  0
 24 40  1  0
 24 41  1  0
 26 42  1  0
 26 43  1  0
 26 44  1  0
M  END

$$$$
mibefradil
     RDKit          3D

 74 77  0  0  1  0  0  0  0  0999 V2000
   -2.3679    0.9141   -0.2998 C   0  0  0  0  0  0  0  0  0  0  0  0
   -2.1469   -0.5050   -0.3984 C   0  0  0  0  0  0  0  0  0  0  0  0
   -3.5077    1.2414    0.7432 C   0  0  0  0  0  0  0  0  0  0  0  0
   -1.2594    1.7417    0.2111 C   0  0  0  0  0  0  0  0  0  0  0  0
   -2.9556    1.5828   -1.3847 O   0  0  0  0  0  0  0  0  0  0  0  0
   -1.9547   -1.1101    0.9513 C   0  0  0  0  0  0  0  0  0  0  0  0
   -3.1514   -1.3635   -1.0891 C   0  0  0  0  0  0  0  0  0  0  0  0
   -3.2509    0.6815    2.0698 C   0  0  0  0  0  0  0  0  0  0  0  0
    0.0712    1.8876   -0.3548 C   0  0  0  0  0  0  0  0  0  0  0  0
   -2.6612    1.7349   -2.6613 C   0  0  0  0  0  0  0  0  0  0  0  0
   -2.4912   -0.5615    2.1048 C   0  0  0  0  0  0  0  0  0  0  0  0
   -1.2073   -2.2900    1.1226 C   0  0  0  0  0  0  0  0  0  0  0  0
   -4.5313   -1.4503   -0.5776 C   0  0  0  0  0  0  0  0  0  0  0  0
   -2.6946   -2.7633   -1.3819 C   0  0  0  0  0  0  0  0  0  0  0  0
    0.9717    0.8155   -0.3734 N   0  0  0  0  0  0  0  0  0  0  0  0
   -3.4743    2.5349   -3.6020 C   0  0  0  0  0  0  0  0  0  0  0  0
   -1.6218    1.1480   -3.0421 O   0  0  0  0  0  0  0  0  0  0  0  0
   -2.2950   -1.1520    3.3278 C   0  0  0  0  0  0  0  0  0  0  0  0
   -1.0046   -2.8882    2.3382 C   0  0  0  0  0  0  0  0  0  0  0  0
    1.5705    0.3718    0.8381 C   0  0  0  0  0  0  0  0  0  0  0  0
    1.6321    0.4050   -1.5156 C   0  0  0  0  0  0  0  0  0  0  0  0
   -4.6160    3.0830   -3.0895 O   0  0  0  0  0  0  0  0  0  0  0  0
   -1.5574   -2.3092    3.4533 C   0  0  0  0  0  0  0  0  0  0  0  0
    2.4948    1.3650    1.4188 C   0  0  0  0  0  0  0  0  0  0  0  0
   -5.5797    2.2163   -2.6509 C   0  0  0  0  0  0  0  0  0  0  0  0
   -1.3796   -2.8744    4.6847 F   0  0  0  0  0  0  0  0  0  0  0  0
    3.7310    1.7649    0.7410 C   0  0  0  0  0  0  0  0  0  0  0  0
    4.7848    0.7330    0.5853 C   0  0  0  0  0  0  0  0  0  0  0  0
    5.7509    0.4760    1.5245 N   0  0  0  0  0  0  0  0  0  0  0  0
    5.0565   -0.1036   -0.4080 N   0  0  0  0  0  0  0  0  0  0  0  0
    6.5817   -0.4896    1.1074 C   0  0  0  0  0  0  0  0  0  0  0  0
    6.1309   -0.8706   -0.1549 C   0  0  0  0  0  0  0  0  0  0  0  0
    7.6866   -1.1160    1.6352 C   0  0  0  0  0  0  0  0  0  0  0  0
    6.8224   -1.8645   -0.8147 C   0  0  0  0  0  0  0  0  0  0  0  0
    8.3708   -2.1061    0.9715 C   0  0  0  0  0  0  0  0  0  0  0  0
    7.9298   -2.4990   -0.2967 C   0  0  0  0  0  0  0  0  0  0  0  0
   -1.1871   -0.6994   -0.9290 H   0  0  0  0  0  0  0  0  0  0  0  0
   -4.4940    1.0897    0.3190 H   0  0  0  0  0  0  0  0  0  0  0  0
   -3.4333    2.3591    0.8250 H   0  0  0  0  0  0  0  0  0  0  0  0
   -1.6371    2.8386    0.3747 H   0  0  0  0  0  0  0  0  0  0  0  0
   -1.0617    1.5155    1.3351 H   0  0  0  0  0  0  0  0  0  0  0  0
   -3.3072   -0.9793   -2.1732 H   0  0  0  0  0  0  0  0  0  0  0  0
   -4.2502    0.5053    2.5672 H   0  0  0  0  0  0  0  0  0  0  0  0
   -2.7395    1.4024    2.7739 H   0  0  0  0  0  0  0  0  0  0  0  0
    0.1076    2.5069   -1.3087 H   0  0  0  0  0  0  0  0  0  0  0  0
    0.6060    2.6799    0.3189 H   0  0  0  0  0  0  0  0  0  0  0  0
   -0.7333   -2.7642    0.2700 H   0  0  0  0  0  0  0  0  0  0  0  0
   -4.6440   -1.6146    0.5183 H   0  0  0  0  0  0  0  0  0  0  0  0
   -4.9706   -2.4216   -0.9885 H   0  0  0  0  0  0  0  0  0  0  0  0
   -5.2413   -0.7025   -0.9934 H   0  0  0  0  0  0  0  0  0  0  0  0
   -1.7104   -2.8194   -1.8862 H   0  0  0  0  0  0  0  0  0  0  0  0
   -3.4017   -3.1671   -2.1824 H   0  0  0  0  0  0  0  0  0  0  0  0
   -2.8430   -3.4864   -0.5613 H   0  0  0  0  0  0  0  0  0  0  0  0
   -3.7588    1.8476   -4.4578 H   0  0  0  0  0  0  0  0  0  0  0  0
   -2.8723    3.3947   -4.0244 H   0  0  0  0  0  0  0  0  0  0  0  0
   -2.7313   -0.6918    4.1969 H   0  0  0  0  0  0  0  0  0  0  0  0
   -0.4258   -3.7933    2.4298 H   0  0  0  0  0  0  0  0  0  0  0  0
    2.0621   -0.6078    0.6087 H   0  0  0  0  0  0  0  0  0  0  0  0
    0.7770    0.0842    1.6021 H   0  0  0  0  0  0  0  0  0  0  0  0
    0.8938    0.1273   -2.3245 H   0  0  0  0  0  0  0  0  0  0  0  0
    2.2632   -0.5066   -1.4150 H   0  0  0  0  0  0  0  0  0  0  0  0
    2.2658    1.1991   -2.0089 H   0  0  0  0  0  0  0  0  0  0  0  0
    1.9603    2.3274    1.7075 H   0  0  0  0  0  0  0  0  0  0  0  0
    2.7455    0.9530    2.4699 H   0  0  0  0  0  0  0  0  0  0  0  0
   -6.4666    2.7921   -2.2531 H   0  0  0  0  0  0  0  0  0  0  0  0
   -6.0016    1.6961   -3.5594 H   0  0  0  0  0  0  0  0  0  0  0  0
   -5.3132    1.5193   -1.8622 H   0  0  0  0  0  0  0  0  0  0  0  0
    3.5113    2.2521   -0.2622 H   0  0  0  0  0  0  0  0  0  0  0  0
    4.1431    2.6532    1.3242 H   0  0  0  0  0  0  0  0  0  0  0  0
    5.7851    0.9924    2.4225 H   0  0  0  0  0  0  0  0  0  0  0  0
    8.0349   -0.8224    2.6097 H   0  0  0  0  0  0  0  0  0  0  0  0
    6.4749   -2.1616   -1.7934 H   0  0  0  0  0  0  0  0  0  0  0  0
    9.2505   -2.5956    1.4067 H   0  0  0  0  0  0  0  0  0  0  0  0
    8.4659   -3.2828   -0.8297 H   0  0  0  0  0  0  0  0  0  0  0  0
  1  3  1  0
  1  4  1  0
  1  2  1  0
  1  5  1  0
  2  7  1  0
  2  6  1  0
  3  8  1  0
  4  9  1  0
  5 10  1  0
  6 12  2  0
  6 11  1  0
  7 14  1  0
  7 13  1  0
  8 11  1  0
  9 15  1  0
 10 16  1  0
 10 17  2  0
 11 18  2  0
 12 19  1  0
 15 21  1  0
 15 20  1  0
 16 22  1  0
 18 23  1  0
 19 23  2  0
 20 24  1  0
 22 25  1  0
 23 26  1  0
 24 27  1  0
 27 28  1  0
 28 29  1  0
 28 30  2  0
 29 31  1  0
 30 32  1  0
 31 33  2  0
 31 32  1  0
 32 34  2  0
 33 35  1  0
 34 36  1  0
 35 36  2  0
  2 37  1  0
  3 38  1  0
  3 39  1  0
  4 40  1  0
  4 41  1  0
  7 42  1  0
  8 43  1  0
  8 44  1  0
  9 45  1  0
  9 46  1  0
 12 47  1  0
 13 48  1  0
 13 49  1  0
 13 50  1  0
 14 51  1  0
 14 52  1  0
 14 53  1  0
 16 54  1  0
 16 55  1  0
 18 56  1  0
 19 57  1  0
 20 58  1  0
 20 59  1  0
 21 60  1  0
 21 61  1  0
 21 62  1  0
 24 63  1  0
 24 64  1  0
 25 65  1  0
 25 66  1  0
 25 67  1  0
 27 68  1  0
 27 69  1  0
 29 70  1  0
 33 71  1  0
 34 72  1  0
 35 73  1  0
 36 74  1  0
M  END

$$$$
verapamil
     RDKit          3D

 71 72  0  0  1  0  0  0  0  0999 V2000
   -2.7299    1.3548    0.8987 C   0  0  0  0  0  0  0  0  0  0  0  0
   -3.7146    0.2990    0.6570 C   0  0  0  0  0  0  0  0  0  0  0  0
   -1.3813    0.6434    1.0735 C   0  0  0  0  0  0  0  0  0  0  0  0
   -2.6037    2.4235   -0.0960 C   0  0  0  0  0  0  0  0  0  0  0  0
   -3.1076    1.9930    2.1877 C   0  0  0  0  0  0  0  0  0  0  0  0
   -4.4335    0.0980   -0.4943 C   0  0  0  0  0  0  0  0  0  0  0  0
   -3.9311   -0.5723    1.7138 C   0  0  0  0  0  0  0  0  0  0  0  0
   -0.2589    1.5651    1.3350 C   0  0  0  0  0  0  0  0  0  0  0  0
   -3.9200    3.1997   -0.2891 C   0  0  0  0  0  0  0  0  0  0  0  0
   -1.9817    2.0810   -1.4083 C   0  0  0  0  0  0  0  0  0  0  0  0
   -3.4097    2.5004    3.1852 N   0  0  0  0  0  0  0  0  0  0  0  0
   -5.3417   -0.9639   -0.5520 C   0  0  0  0  0  0  0  0  0  0  0  0
   -4.8258   -1.6177    1.6585 C   0  0  0  0  0  0  0  0  0  0  0  0
    1.0873    1.0346    1.5691 C   0  0  0  0  0  0  0  0  0  0  0  0
   -5.5513   -1.8259    0.5038 C   0  0  0  0  0  0  0  0  0  0  0  0
   -6.0524   -1.1467   -1.7211 O   0  0  0  0  0  0  0  0  0  0  0  0
    1.7241    0.2605    0.5304 N   0  0  0  0  0  0  0  0  0  0  0  0
   -6.4690   -2.8604    0.3815 O   0  0  0  0  0  0  0  0  0  0  0  0
   -5.9113   -0.3253   -2.8480 C   0  0  0  0  0  0  0  0  0  0  0  0
    1.9874    1.0224   -0.6309 C   0  0  0  0  0  0  0  0  0  0  0  0
    1.1615   -1.0374    0.3609 C   0  0  0  0  0  0  0  0  0  0  0  0
   -6.7286   -3.7754    1.4248 C   0  0  0  0  0  0  0  0  0  0  0  0
    2.8877    0.3491   -1.6089 C   0  0  0  0  0  0  0  0  0  0  0  0
    4.2579    0.0944   -1.1653 C   0  0  0  0  0  0  0  0  0  0  0  0
    4.6706   -1.1054   -0.6696 C   0  0  0  0  0  0  0  0  0  0  0  0
    5.1847    1.1407   -1.2435 C   0  0  0  0  0  0  0  0  0  0  0  0
    5.9697   -1.2966   -0.2494 C   0  0  0  0  0  0  0  0  0  0  0  0
    6.4784    0.9680   -0.8327 C   0  0  0  0  0  0  0  0  0  0  0  0
    6.8758   -0.2472   -0.3358 C   0  0  0  0  0  0  0  0  0  0  0  0
    6.3527   -2.5329    0.2502 O   0  0  0  0  0  0  0  0  0  0  0  0
    8.1515   -0.4802    0.0893 O   0  0  0  0  0  0  0  0  0  0  0  0
    5.4366   -3.5866    0.3323 C   0  0  0  0  0  0  0  0  0  0  0  0
    9.2276    0.4061    0.1029 C   0  0  0  0  0  0  0  0  0  0  0  0
   -1.4774   -0.1190    1.9042 H   0  0  0  0  0  0  0  0  0  0  0  0
   -1.2246    0.0312    0.1456 H   0  0  0  0  0  0  0  0  0  0  0  0
   -1.9355    3.2155    0.3714 H   0  0  0  0  0  0  0  0  0  0  0  0
   -4.2868    0.7549   -1.3308 H   0  0  0  0  0  0  0  0  0  0  0  0
   -3.3920   -0.4695    2.6650 H   0  0  0  0  0  0  0  0  0  0  0  0
   -0.1669    2.3585    0.5381 H   0  0  0  0  0  0  0  0  0  0  0  0
   -0.5655    2.1892    2.2360 H   0  0  0  0  0  0  0  0  0  0  0  0
   -4.1952    3.1417   -1.3613 H   0  0  0  0  0  0  0  0  0  0  0  0
   -4.7167    2.7225    0.3452 H   0  0  0  0  0  0  0  0  0  0  0  0
   -3.8596    4.2470   -0.0062 H   0  0  0  0  0  0  0  0  0  0  0  0
   -1.6786    1.0383   -1.5368 H   0  0  0  0  0  0  0  0  0  0  0  0
   -1.0644    2.7040   -1.6389 H   0  0  0  0  0  0  0  0  0  0  0  0
   -2.6968    2.4075   -2.2250 H   0  0  0  0  0  0  0  0  0  0  0  0
   -4.9895   -2.2931    2.4906 H   0  0  0  0  0  0  0  0  0  0  0  0
    1.7795    1.9121    1.7410 H   0  0  0  0  0  0  0  0  0  0  0  0
    1.1766    0.4476    2.5155 H   0  0  0  0  0  0  0  0  0  0  0  0
   -5.9808    0.7484   -2.5874 H   0  0  0  0  0  0  0  0  0  0  0  0
   -4.8871   -0.4807   -3.2469 H   0  0  0  0  0  0  0  0  0  0  0  0
   -6.6542   -0.6324   -3.6164 H   0  0  0  0  0  0  0  0  0  0  0  0
    1.0659    1.3148   -1.1951 H   0  0  0  0  0  0  0  0  0  0  0  0
    2.4851    1.9793   -0.2693 H   0  0  0  0  0  0  0  0  0  0  0  0
    1.9473   -1.8071    0.4648 H   0  0  0  0  0  0  0  0  0  0  0  0
    0.6834   -1.1992   -0.6233 H   0  0  0  0  0  0  0  0  0  0  0  0
    0.4090   -1.3118    1.1468 H   0  0  0  0  0  0  0  0  0  0  0  0
   -7.2833   -3.2136    2.2112 H   0  0  0  0  0  0  0  0  0  0  0  0
   -5.8091   -4.1986    1.8665 H   0  0  0  0  0  0  0  0  0  0  0  0
   -7.3828   -4.6074    1.0988 H   0  0  0  0  0  0  0  0  0  0  0  0
    2.9204    0.8885   -2.5954 H   0  0  0  0  0  0  0  0  0  0  0  0
    2.4548   -0.6683   -1.8697 H   0  0  0  0  0  0  0  0  0  0  0  0
    4.0153   -1.9638   -0.5917 H   0  0  0  0  0  0  0  0  0  0  0  0
    4.8602    2.0773   -1.6330 H   0  0  0  0  0  0  0  0  0  0  0  0
    7.1886    1.7743   -0.8934 H   0  0  0  0  0  0  0  0  0  0  0  0
    5.0748   -3.8641   -0.6919 H   0  0  0  0  0  0  0  0  0  0  0  0
    4.5483   -3.2740    0.9282 H   0  0  0  0  0  0  0  0  0  0  0  0
    5.9359   -4.4644    0.7470 H   0  0  0  0  0  0  0  0  0  0  0  0
    9.2959    0.8448    1.1309 H   0  0  0  0  0  0  0  0  0  0  0  0
    9.1003    1.1759   -0.6683 H   0  0  0  0  0  0  0  0  0  0  0  0
   10.2045   -0.1176   -0.0755 H   0  0  0  0  0  0  0  0  0  0  0  0
  1  3  1  0
  1  4  1  0
  1  2  1  0
  1  5  1  0
  2  7  1  0
  2  6  2  0
  3  8  1  0
  4 10  1  0
  4  9  1  0
  5 11  3  0
  6 12  1  0
  7 13  2  0
  8 14  1  0
 12 15  2  0
 12 16  1  0
 13 15  1  0
 14 17  1  0
 15 18  1  0
 16 19  1  0
 17 21  1  0
 17 20  1  0
 18 22  1  0
 20 23  1  0
 23 24  1  0
 24 26  1  0
 24 25  2  0
 25 27  1  0
 26 28  2  0
 27 29  2  0
 27 30  1  0
 28 29  1  0
 29 31  1  0
 30 32  1  0
 31 33  1  0
  3 34  1  0
  3 35  1  0
  4 36  1  0
  6 37  1  0
  7 38  1  0
  8 39  1  0
  8 40  1  0
  9 41  1  0
  9 42  1  0
  9 43  1  0
 10 44  1  0
 10 45  1  0
 10 46  1  0
 13 47  1  0
 14 48  1  0
 14 49  1  0
 19 50  1  0
 19 51  1  0
 19 52  1  0
 20 53  1  0
 20 54  1  0
 21 55  1  0
 21 56  1  0
 21 57  1  0
 22 58  1  0
 22 59  1  0
 22 60  1  0
 23 61  1  0
 23 62  1  0
 25 63  1  0
 26 64  1  0
 28 65  1  0
 32 66  1  0
 32 67  1  0
 32 68  1  0
 33 69  1  0
 33 70  1  0
 33 71  1  0
M  END

$$$$
